Input file: /data/zool-zost/Ref_Genome/Ref_Genome_PseudoChroms/Zlat_2_Tgut_pseudochromosomes.fasta
Output file: /data/biol-bird-parasites/sann7416/wgs-mining-validation/data/wgs-mining/Reg_Zlat_2_Tgut_pseudochromosomes.fasta
